  56    
 generated by VMD
 C        18.982620       16.804749       15.950065
 C        14.019817       16.849066       16.173317
 C        15.234886       16.151661       16.171522
 C        15.252963       14.663442       16.514853
 C        13.948457       13.935031       16.172953
 C        12.754395       14.621893       16.172604
 C        12.723787       16.114822       16.516731
 C        11.464997       16.848640       16.060230
 C        13.988969       18.255571       15.988086
 C        12.721111       19.001949       16.013399
 C        11.476974       18.301216       16.020576
 C        10.343864       16.099922       15.800391
 C        10.340328       14.687010       15.824039
 C        11.499281       13.934846       15.981356
 C        11.489133       12.474066       15.922577
 C        12.723297       11.762959       15.925947
 C        13.985771       12.503288       15.986250
 C        16.522215       13.940854       16.062370
 C        16.439859       12.593307       15.810209
 C        15.220836       11.877306       15.838168
 C        17.748878       16.112356       15.996553
 C        17.769207       14.683290       16.011057
 C        16.415659       18.225927       15.777901
 C        15.219285       18.912857       15.779488
 C        16.466059       16.831959       15.983650
 C        12.695701       20.417032       15.995182
 C        11.506012       21.131687       15.972254
 C        10.280710       20.442419       15.969035
 C        10.273902       19.057636       15.993827
 C        10.278785       11.736847       15.896661
 C        10.271847       10.352355       15.877395
 C        11.489893        9.649438       15.879855
 C        12.687081       10.346340       15.901175
 C        19.027885       14.025401       15.968468
 C        20.217999       14.730550       15.900556
 C        20.196911       16.136253       15.895416
 H        11.496022        8.563532       15.861899
 H         9.328388        9.814422       15.858521
 H        13.612342        9.781955       15.914359
 H        21.164330       14.198310       15.864513
 H        21.124741       16.699118       15.852697
 H        18.994755       17.888033       15.952700
 H        13.625648       20.973066       16.011118
 H        11.525849       22.217609       15.958748
 H         9.343271       20.990845       15.953519
 H         9.329350       12.258981       15.907347
 H        19.065203       12.942372       16.003586
 H         9.319877       18.542868       16.020538
 H        12.667244       16.146456       17.630505
 H        15.307992       14.631775       17.628870
 H         9.414873       16.593395       15.533422
 H         9.396370       14.191297       15.631021
 H        17.333693       12.037002       15.546203
 H        15.267415       10.811259       15.648787
 H        17.325226       18.784275       15.592329
 H        15.243752       19.980244       15.595161
