116

Pd       1.3702500000     -0.0107400000      3.4478800000                 
Ga       1.8974800000      1.8882500000      3.7289900000                 
Ga       1.8693300000     -1.8883400000      3.7243200000                 
Ga      -0.2707000000     -0.0070900000      4.3327100000                 
Ga       3.3146500000     -0.0011100000      2.8729300000                 
Ti       0.8600400000      1.8920200000     -4.2620600000                 
Ti       3.6243300000      1.8913400000     -3.7051700000                 
Ti      -4.2543100000      3.7822700000     -4.2626600000                 
Ti       1.3817500000      3.7823900000      3.4589500000                 
Ti       0.8602200000     -5.6728500000     -4.2616400000                 
Ti       3.6247600000     -5.6729200000     -3.7049000000                 
Ti      -4.2538000000     -3.7816700000     -4.2621700000                 
Ti       1.3675600000     -3.7714200000      3.4584500000                 
Ti       0.8649000000     -1.8921700000     -4.2643700000                 
Ti       3.6276400000     -1.8913000000     -3.6941400000                 
Ti      -4.2555300000     -0.0004300000     -4.2635900000                 
Ti       2.2687700000      1.8941600000     -0.7213900000                 
Ti      -5.1446100000      1.8933200000     -0.0754900000                 
Ti      -2.8439500000      3.7841400000     -0.7265400000                 
Ti      -1.4884800000      3.7822900000     -3.7073200000                 
Ti       2.2684200000     -5.6717100000     -0.7217300000                 
Ti      -5.1447900000     -5.6729500000     -0.0741600000                 
Ti      -2.8450300000     -3.7788200000     -0.7274800000                 
Ti      -1.4878200000     -3.7811600000     -3.7059200000                 
Ti       2.2953600000     -1.8945800000     -0.7324900000                 
Ti      -5.1372100000     -1.8918700000     -0.0012400000                 
Ti      -2.8526900000     -0.0039500000     -0.7412900000                 
Ti      -1.4852100000     -0.0011900000     -3.7100500000                 
Ti       3.7223400000      1.8887200000      2.9133100000                 
Ti      -3.7307600000      1.9120500000      3.4387600000                 
Ti      -1.3792300000      3.7857300000      2.9025400000                 
Ti      -0.0314400000      3.7828900000     -0.0777700000                 
Ti       3.7205700000     -5.6668000000      2.9114800000                 
Ti      -3.7357600000     -5.6788600000      3.4482600000                 
Ti      -1.3999500000     -3.7707100000      2.8874400000                 
Ti      -0.0282300000     -3.7757000000     -0.0787200000                 
Ti       3.7557600000     -1.8917500000      2.9143700000                 
Ti      -3.7269800000     -1.9006600000      3.6517600000                 
Ti      -1.4316400000     -0.0089900000      2.8221500000                 
Ti      -0.0179500000     -0.0078000000     -0.0922900000                 
O        1.7866700000      1.8910400000     -2.7427500000                 
O        2.4782900000      1.8909900000     -5.1376900000                 
O        0.3346400000      3.7821200000     -4.5275900000                 
O       -4.7794900000      1.8903800000     -4.5278000000                 
O        4.0248200000      3.7818900000     -3.6667900000                 
O       -0.2374800000      3.7781600000      4.3379100000                 
O       -2.6363600000      3.7820100000     -5.1385100000                 
O        1.7869100000     -5.6728800000     -2.7423600000                 
O        2.4785000000     -5.6729200000     -5.1374000000                 
O        0.3358100000     -3.7815300000     -4.5276200000                 
O        1.9006200000     -5.6721800000      3.7282300000                 
O       -4.7792600000     -5.6728700000     -4.5273900000                 
O        4.0251600000     -3.7817100000     -3.6656300000                 
O       -0.2527500000     -3.7773200000      4.3296700000                 
O       -2.6361400000     -3.7817700000     -5.1377500000                 
O        1.7891600000     -1.8911500000     -2.7417200000                 
O        2.4832000000     -1.8910300000     -5.1341400000                 
O        0.3356900000     -0.0006000000     -4.5283200000                 
O       -4.7789200000     -1.8904300000     -4.5262300000                 
O        4.0252000000     -0.0000800000     -3.6656000000                 
O       -2.6375200000     -0.0002700000     -5.1384500000                 
O        3.3194900000      1.8901200000      0.8083000000                 
O        4.0283600000      1.8906900000     -1.6083000000                 
O        1.8555800000      3.7824500000     -0.7335200000                 
O       -1.0885200000      1.8906800000     -3.6679400000                 
O       -3.2595300000      1.8897700000     -0.7334200000                 
O       -4.7312100000      3.7823700000     -0.0697100000                 
O       -3.3267300000      3.7819100000     -2.7433000000                 
O       -1.0847800000      3.7818600000     -1.6113000000                 
O        3.3201200000     -5.6722900000      0.8087200000                 
O        4.0286000000     -5.6721100000     -1.6077900000                 
O        1.8574100000     -3.7804600000     -0.7330800000                 
O       -1.0884600000     -5.6727900000     -3.6676300000                 
O       -3.2604700000     -5.6718700000     -0.7338300000                 
O       -4.7300900000     -3.7791000000     -0.0598100000                 
O       -3.3267400000     -3.7812400000     -2.7423500000                 
O       -1.0853500000     -3.7809400000     -1.6116100000                 
O        3.3210900000     -1.8907700000      0.8191900000                 
O        4.0371400000     -1.8910400000     -1.5881400000                 
O        1.8572600000     -0.0016900000     -0.7344000000                 
O       -1.0878400000     -1.8909000000     -3.6681500000                 
O       -3.2591500000     -1.8898600000     -0.7264200000                 
O       -4.7289700000     -0.0017600000     -0.0618100000                 
O       -3.3269300000     -0.0004500000     -2.7420200000                 
O       -1.0850600000     -0.0008800000     -1.6147000000                 
O       -5.3457700000      1.8899500000      4.3344500000                 
O       -4.6728300000      1.9009000000      1.9326700000                 
O        3.3250800000      3.7807500000      2.8687300000                 
O        0.3836400000      1.8909300000     -0.0691200000                 
O       -1.7857500000      1.9013100000      2.8154000000                 
O       -3.2026700000      3.7827600000      3.7306800000                 
O       -1.7909600000      3.7866800000      0.8027300000                 
O        0.4518800000      3.7839700000      1.9399700000                 
O       -5.3525000000     -5.6742800000      4.3359400000                 
O       -4.6690000000     -5.6807500000      1.9358600000                 
O        3.3236100000     -3.7787900000      2.8721800000                 
O        0.3837700000     -5.6723400000     -0.0690500000                 
O       -1.7864000000     -5.6734800000      2.8627400000                 
O       -3.2390200000     -3.7978200000      3.6716500000                 
O       -1.7903200000     -3.7850300000      0.8021000000                 
O        0.4462600000     -3.7813100000      1.9359900000                 
O       -5.4086800000     -1.8843500000      4.3991900000                 
O       -4.6680700000     -1.8855400000      2.0338700000                 
O        0.3830900000     -1.8910800000     -0.0700000000                 
O       -1.8010800000     -1.8874700000      2.8216800000                 
O       -3.2081300000      0.0411600000      3.6695300000                 
O       -1.7887100000      0.0007900000      0.7998900000                 
O        0.4497900000      0.0007400000      1.9321200000                 
C       -2.5132400000     -1.1924800000      6.6141100000                 
C       -3.1978600000     -1.3575800000      7.9359100000                 
H       -2.4783208576     -0.1542326701      6.3577447616                 
H       -1.5170724570     -1.5778280445      6.6778054539                 
H       -3.0552158733     -1.7274293055      5.8624509062                 
H       -2.6752900000     -0.8249400000      8.7355800000                 
H       -4.2239500000     -0.9733300000      7.8414000000                 
H       -3.2771000000     -2.4268900000      8.1687300000                 
