    8
 
 H     0.000000     0.000000     0.000000
 N     0.000000     0.000000     1.008000
 H     0.950352     0.000000     1.344000
 H    -0.475176     0.823029     1.344000
 C    -0.678823    -1.175755     1.488000
 O    -0.262012    -2.283818     1.193270
 H    -2.051608    -0.066461     2.458706
 N    -1.849618    -1.043633     2.315878
