116

Ti        -0.01795       -0.00780       -0.09229
Ga         0.44979        0.00074        1.93212
Pd        -1.43164       -0.00899        2.82215
Ga        -1.78871        0.00079        0.79989
Ga        -3.20813        0.04116        3.66953
Ga        -1.80108       -1.88747        2.82168
Pd        -3.72698       -1.90066        3.65176
O          0.38309       -1.89108       -0.07000
Pd         3.75576       -1.89175        2.91437
Ga         3.31465       -0.00111        2.87293
Ga        -4.66807       -1.88554        2.03387
Ga        -5.40868       -1.88435        4.39919
Ti        -0.02823       -3.77570       -0.07872
Ga         0.44626       -3.78131        1.93599
Pd        -1.39995       -3.77071        2.88744
Ga        -1.79032       -3.78503        0.80210
Ga        -3.23902       -3.79782        3.67165
Ga        -1.78640       -5.67348        2.86274
Pd        -3.73576       -5.67886        3.44826
O          0.38377       -5.67234       -0.06905
Pd         3.72057       -5.66680        2.91148
Ga         3.32361       -3.77879        2.87218
Ga        -4.66900       -5.68075        1.93586
Ga        -5.35250       -5.67428        4.33594
Ti        -0.03144        3.78289       -0.07777
Ga         0.45188        3.78397        1.93997
Pd        -1.37923        3.78573        2.90254
Ga        -1.79096        3.78668        0.80273
Ga        -3.20267        3.78276        3.73068
Ga        -1.78575        1.90131        2.81540
Pd        -3.73076        1.91205        3.43876
O          0.38364        1.89093       -0.06912
Pd         3.72234        1.88872        2.91331
Ga         3.32508        3.78075        2.86873
Ga        -4.67283        1.90090        1.93267
Ga        -5.34577        1.88995        4.33445
Ti        -1.48521       -0.00119       -3.71005
O         -1.08506       -0.00088       -1.61470
Ti        -2.85269       -0.00395       -0.74129
O         -3.32693       -0.00045       -2.74202
O         -4.72897       -0.00176       -0.06181
O         -3.25915       -1.88986       -0.72642
Ti        -5.13721       -1.89187       -0.00124
O         -1.08784       -1.89090       -3.66815
Ti         2.29536       -1.89458       -0.73249
O          1.85726       -0.00169       -0.73440
O          4.03714       -1.89104       -1.58814
Ga         3.32109       -1.89077        0.81919
Ti        -1.48782       -3.78116       -3.70592
O         -1.08535       -3.78094       -1.61161
Ti        -2.84503       -3.77882       -0.72748
O         -3.32674       -3.78124       -2.74235
O         -4.73009       -3.77910       -0.05981
O         -3.26047       -5.67187       -0.73383
Ti        -5.14479       -5.67295       -0.07416
O         -1.08846       -5.67279       -3.66763
Ti         2.26842       -5.67171       -0.72173
O          1.85741       -3.78046       -0.73308
O          4.02860       -5.67211       -1.60779
Ga         3.32012       -5.67229        0.80872
Ti        -1.48848        3.78229       -3.70732
O         -1.08478        3.78186       -1.61130
Ti        -2.84395        3.78414       -0.72654
O         -3.32673        3.78191       -2.74330
O         -4.73121        3.78237       -0.06971
O         -3.25953        1.88977       -0.73342
Ti        -5.14461        1.89332       -0.07549
O         -1.08852        1.89068       -3.66794
Ti         2.26877        1.89416       -0.72139
O          1.85558        3.78245       -0.73352
O          4.02836        1.89069       -1.60830
Ga         3.31949        1.89012        0.80830
Pd         1.37025       -0.01074        3.44788
O         -2.63752       -0.00027       -5.13845
Ti        -4.25553       -0.00043       -4.26359
Ga        -0.27070       -0.00709        4.33271
O          4.02520       -0.00008       -3.66560
O         -4.77892       -1.89043       -4.52623
Ti         3.62764       -1.89130       -3.69414
Ga         1.86933       -1.88834        3.72432
Ti         0.86490       -1.89217       -4.26437
O          0.33569       -0.00060       -4.52832
O          2.48320       -1.89103       -5.13414
O          1.78916       -1.89115       -2.74172
Pd         1.36756       -3.77142        3.45845
O         -2.63614       -3.78177       -5.13775
Ti        -4.25380       -3.78167       -4.26217
Ga        -0.25275       -3.77732        4.32967
O          4.02516       -3.78171       -3.66563
O         -4.77926       -5.67287       -4.52739
Ti         3.62476       -5.67292       -3.70490
Ga         1.90062       -5.67218        3.72823
Ti         0.86022       -5.67285       -4.26164
O          0.33581       -3.78153       -4.52762
O          2.47850       -5.67292       -5.13740
O          1.78691       -5.67288       -2.74236
Pd         1.38175        3.78239        3.45895
O         -2.63636        3.78201       -5.13851
Ti        -4.25431        3.78227       -4.26266
Ga        -0.23748        3.77816        4.33791
O          4.02482        3.78189       -3.66679
O         -4.77949        1.89038       -4.52780
Ti         3.62433        1.89134       -3.70517
Ga         1.89748        1.88825        3.72899
Ti         0.86004        1.89202       -4.26206
O          0.33464        3.78212       -4.52759
O          2.47829        1.89099       -5.13769
O          1.78667        1.89104       -2.74275
H         -3.27710       -2.42689        8.16873
C         -3.19786       -1.35758        7.93591
H         -4.22395       -0.97333        7.84140
H         -2.67529       -0.82494        8.73558
C         -2.51324       -1.19248        6.61411
H         -3.05522       -1.72744        5.86245
H         -1.51708       -1.57783        6.67780
H         -2.47833       -0.15424        6.35774
